 xtb: 6.7.1 (edcfbbe)
          08112611113D

 14 13  0     0  0            999 V2000
   -2.4786    0.3694   -0.0089 C   0  0  0  0  0  0  0  0  0  0  0  0
   -3.5600    0.2689    0.0536 H   0  0  0  0  0  0  0  0  0  0  0  0
   -2.0444   -0.6263   -0.0669 H   0  0  0  0  0  0  0  0  0  0  0  0
   -2.2386    0.9031   -0.9263 H   0  0  0  0  0  0  0  0  0  0  0  0
   -1.9415    1.1210    1.2028 C   0  0  0  0  0  0  0  0  0  0  0  0
   -0.8535    1.1921    1.1331 H   0  0  0  0  0  0  0  0  0  0  0  0
   -2.1783    0.5614    2.1110 H   0  0  0  0  0  0  0  0  0  0  0  0
   -2.5310    2.5254    1.3103 C   0  0  0  0  0  0  0  0  0  0  0  0
   -2.2920    3.0858    0.4032 H   0  0  0  0  0  0  0  0  0  0  0  0
   -3.6192    2.4544    1.3773 H   0  0  0  0  0  0  0  0  0  0  0  0
   -1.9972    3.2756    2.5244 C   0  0  0  0  0  0  0  0  0  0  0  0
   -0.9149    3.3724    2.4678 H   0  0  0  0  0  0  0  0  0  0  0  0
   -2.4282    4.2727    2.5798 H   0  0  0  0  0  0  0  0  0  0  0  0
   -2.2445    2.7435    3.4407 H   0  0  0  0  0  0  0  0  0  0  0  0
  1  2  1  0  0  0  0
  1  3  1  0  0  0  0
  1  4  1  0  0  0  0
  1  5  1  0  0  0  0
  5  6  1  0  0  0  0
  5  7  1  0  0  0  0
  5  8  1  0  0  0  0
  8  9  1  0  0  0  0
  8 10  1  0  0  0  0
  8 11  1  0  0  0  0
 11 12  1  0  0  0  0
 11 13  1  0  0  0  0
 11 14  1  0  0  0  0
M  END
