 xtb: 6.7.1 (edcfbbe)
          08112611123D

 14 13  0     0  0            999 V2000
   -2.8353    0.1757    1.9728 C   0  0  0  0  0  0  0  0  0  0  0  0
   -3.8805    0.2524    1.6797 H   0  0  0  0  0  0  0  0  0  0  0  0
   -2.7546    0.4226    3.0281 H   0  0  0  0  0  0  0  0  0  0  0  0
   -2.5181   -0.8565    1.8419 H   0  0  0  0  0  0  0  0  0  0  0  0
   -1.9752    1.1052    1.1245 C   0  0  0  0  0  0  0  0  0  0  0  0
   -2.0131    0.7688    0.0853 H   0  0  0  0  0  0  0  0  0  0  0  0
   -0.9358    1.0399    1.4545 H   0  0  0  0  0  0  0  0  0  0  0  0
   -2.4297    2.5642    1.1820 C   0  0  0  0  0  0  0  0  0  0  0  0
   -1.8774    3.1318    0.4289 H   0  0  0  0  0  0  0  0  0  0  0  0
   -3.4902    2.6200    0.9249 H   0  0  0  0  0  0  0  0  0  0  0  0
   -2.2045    3.2086    2.5449 C   0  0  0  0  0  0  0  0  0  0  0  0
   -2.8019    2.7217    3.3112 H   0  0  0  0  0  0  0  0  0  0  0  0
   -1.1564    3.1399    2.8290 H   0  0  0  0  0  0  0  0  0  0  0  0
   -2.4829    4.2597    2.5161 H   0  0  0  0  0  0  0  0  0  0  0  0
  1  2  1  0  0  0  0
  1  3  1  0  0  0  0
  1  4  1  0  0  0  0
  1  5  1  0  0  0  0
  5  6  1  0  0  0  0
  5  7  1  0  0  0  0
  5  8  1  0  0  0  0
  8  9  1  0  0  0  0
  8 10  1  0  0  0  0
  8 11  1  0  0  0  0
 11 12  1  0  0  0  0
 11 13  1  0  0  0  0
 11 14  1  0  0  0  0
M  END
