 xtb: 6.7.1 (edcfbbe)
          08112611123D

 14 13  0     0  0            999 V2000
   -2.4838    0.3679   -0.0055 C   0  0  0  0  0  0  0  0  0  0  0  0
   -2.0885   -0.6449   -0.0353 H   0  0  0  0  0  0  0  0  0  0  0  0
   -2.1783    0.8824   -0.9142 H   0  0  0  0  0  0  0  0  0  0  0  0
   -3.5703    0.3122    0.0060 H   0  0  0  0  0  0  0  0  0  0  0  0
   -1.9736    1.1084    1.2246 C   0  0  0  0  0  0  0  0  0  0  0  0
   -0.8815    1.1353    1.2047 H   0  0  0  0  0  0  0  0  0  0  0  0
   -2.2743    0.5673    2.1249 H   0  0  0  0  0  0  0  0  0  0  0  0
   -2.5097    2.5363    1.2941 C   0  0  0  0  0  0  0  0  0  0  0  0
   -2.2159    3.0749    0.3900 H   0  0  0  0  0  0  0  0  0  0  0  0
   -3.6016    2.5094    1.3223 H   0  0  0  0  0  0  0  0  0  0  0  0
   -1.9898    3.2806    2.5178 C   0  0  0  0  0  0  0  0  0  0  0  0
   -2.2876    2.7689    3.4307 H   0  0  0  0  0  0  0  0  0  0  0  0
   -0.9034    3.3363    2.4969 H   0  0  0  0  0  0  0  0  0  0  0  0
   -2.3847    4.2936    2.5476 H   0  0  0  0  0  0  0  0  0  0  0  0
  1  2  1  0  0  0  0
  1  3  1  0  0  0  0
  1  4  1  0  0  0  0
  1  5  1  0  0  0  0
  5  6  1  0  0  0  0
  5  7  1  0  0  0  0
  5  8  1  0  0  0  0
  8  9  1  0  0  0  0
  8 10  1  0  0  0  0
  8 11  1  0  0  0  0
 11 12  1  0  0  0  0
 11 13  1  0  0  0  0
 11 14  1  0  0  0  0
M  END
