 xtb: 6.7.1 (edcfbbe)
          08172612143D

 14 13  0     0  0            999 V2000
   -2.9287    0.2007    1.9216 C   0  0  0  0  0  0  0  0  0  0  0  0
   -2.6743   -0.8449    1.7622 H   0  0  0  0  0  0  0  0  0  0  0  0
   -3.9691    0.3469    1.6388 H   0  0  0  0  0  0  0  0  0  0  0  0
   -2.8263    0.4151    2.9819 H   0  0  0  0  0  0  0  0  0  0  0  0
   -2.0198    1.0988    1.0902 C   0  0  0  0  0  0  0  0  0  0  0  0
   -2.0840    0.7920    0.0432 H   0  0  0  0  0  0  0  0  0  0  0  0
   -0.9842    0.9633    1.4109 H   0  0  0  0  0  0  0  0  0  0  0  0
   -2.3861    2.5802    1.1875 C   0  0  0  0  0  0  0  0  0  0  0  0
   -1.7955    3.1342    0.4534 H   0  0  0  0  0  0  0  0  0  0  0  0
   -3.4396    2.7074    0.9272 H   0  0  0  0  0  0  0  0  0  0  0  0
   -2.1313    3.1713    2.5694 C   0  0  0  0  0  0  0  0  0  0  0  0
   -1.0933    3.0239    2.8602 H   0  0  0  0  0  0  0  0  0  0  0  0
   -2.3380    4.2393    2.5670 H   0  0  0  0  0  0  0  0  0  0  0  0
   -2.7681    2.7060    3.3170 H   0  0  0  0  0  0  0  0  0  0  0  0
  1  2  1  0  0  0  0
  1  3  1  0  0  0  0
  1  4  1  0  0  0  0
  1  5  1  0  0  0  0
  5  6  1  0  0  0  0
  5  7  1  0  0  0  0
  5  8  1  0  0  0  0
  8  9  1  0  0  0  0
  8 10  1  0  0  0  0
  8 11  1  0  0  0  0
 11 12  1  0  0  0  0
 11 13  1  0  0  0  0
 11 14  1  0  0  0  0
M  END
