 xtb: 6.7.1 (edcfbbe)
          08172612143D

 14 13  0     0  0            999 V2000
   -2.5005    0.3604    0.0063 C   0  0  0  0  0  0  0  0  0  0  0  0
   -2.0705    0.8203   -0.8812 H   0  0  0  0  0  0  0  0  0  0  0  0
   -3.5844    0.4017   -0.0794 H   0  0  0  0  0  0  0  0  0  0  0  0
   -2.1977   -0.6839    0.0326 H   0  0  0  0  0  0  0  0  0  0  0  0
   -2.0358    1.0871    1.2624 C   0  0  0  0  0  0  0  0  0  0  0  0
   -0.9481    1.0186    1.3396 H   0  0  0  0  0  0  0  0  0  0  0  0
   -2.4608    0.5987    2.1425 H   0  0  0  0  0  0  0  0  0  0  0  0
   -2.4472    2.5574    1.2560 C   0  0  0  0  0  0  0  0  0  0  0  0
   -2.0280    3.0440    0.3722 H   0  0  0  0  0  0  0  0  0  0  0  0
   -3.5354    2.6259    1.1859 H   0  0  0  0  0  0  0  0  0  0  0  0
   -1.9737    3.2865    2.5074 C   0  0  0  0  0  0  0  0  0  0  0  0
   -2.3970    2.8285    3.3990 H   0  0  0  0  0  0  0  0  0  0  0  0
   -0.8892    3.2455    2.5851 H   0  0  0  0  0  0  0  0  0  0  0  0
   -2.2766    4.3308    2.4813 H   0  0  0  0  0  0  0  0  0  0  0  0
  1  2  1  0  0  0  0
  1  3  1  0  0  0  0
  1  4  1  0  0  0  0
  1  5  1  0  0  0  0
  5  6  1  0  0  0  0
  5  7  1  0  0  0  0
  5  8  1  0  0  0  0
  8  9  1  0  0  0  0
  8 10  1  0  0  0  0
  8 11  1  0  0  0  0
 11 12  1  0  0  0  0
 11 13  1  0  0  0  0
 11 14  1  0  0  0  0
M  END
