 xtb: 6.7.1 (edcfbbe)
          08172612143D

 14 13  0     0  0            999 V2000
   -0.9866    0.9037    0.3300 C   0  0  0  0  0  0  0  0  0  0  0  0
   -0.1651    1.1998    0.9769 H   0  0  0  0  0  0  0  0  0  0  0  0
   -0.9388    1.4957   -0.5817 H   0  0  0  0  0  0  0  0  0  0  0  0
   -0.8487   -0.1427    0.0666 H   0  0  0  0  0  0  0  0  0  0  0  0
   -2.3293    1.1017    1.0240 C   0  0  0  0  0  0  0  0  0  0  0  0
   -2.3418    0.5343    1.9576 H   0  0  0  0  0  0  0  0  0  0  0  0
   -3.1195    0.7012    0.3839 H   0  0  0  0  0  0  0  0  0  0  0  0
   -2.6415    2.5684    1.3229 C   0  0  0  0  0  0  0  0  0  0  0  0
   -2.5849    3.1437    0.3958 H   0  0  0  0  0  0  0  0  0  0  0  0
   -3.6679    2.6374    1.6917 H   0  0  0  0  0  0  0  0  0  0  0  0
   -1.7052    3.1824    2.3572 C   0  0  0  0  0  0  0  0  0  0  0  0
   -0.6844    3.2200    1.9862 H   0  0  0  0  0  0  0  0  0  0  0  0
   -2.0165    4.1978    2.5923 H   0  0  0  0  0  0  0  0  0  0  0  0
   -1.7176    2.5988    3.2753 H   0  0  0  0  0  0  0  0  0  0  0  0
  1  2  1  0  0  0  0
  1  3  1  0  0  0  0
  1  4  1  0  0  0  0
  1  5  1  0  0  0  0
  5  6  1  0  0  0  0
  5  7  1  0  0  0  0
  5  8  1  0  0  0  0
  8  9  1  0  0  0  0
  8 10  1  0  0  0  0
  8 11  1  0  0  0  0
 11 12  1  0  0  0  0
 11 13  1  0  0  0  0
 11 14  1  0  0  0  0
M  END
