 xtb: 6.7.1 (edcfbbe)
          08112611113D

 14 13  0     0  0            999 V2000
   -0.5310    0.8159    1.4628 C   0  0  0  0  0  0  0  0  0  0  0  0
   -0.3714   -0.2573    1.3856 H   0  0  0  0  0  0  0  0  0  0  0  0
   -0.2181    1.1330    2.4540 H   0  0  0  0  0  0  0  0  0  0  0  0
    0.1004    1.3098    0.7271 H   0  0  0  0  0  0  0  0  0  0  0  0
   -1.9974    1.1518    1.2172 C   0  0  0  0  0  0  0  0  0  0  0  0
   -2.6120    0.6755    1.9847 H   0  0  0  0  0  0  0  0  0  0  0  0
   -2.2965    0.7376    0.2510 H   0  0  0  0  0  0  0  0  0  0  0  0
   -2.2772    2.6551    1.2107 C   0  0  0  0  0  0  0  0  0  0  0  0
   -1.6201    3.1395    0.4845 H   0  0  0  0  0  0  0  0  0  0  0  0
   -3.3071    2.8165    0.8825 H   0  0  0  0  0  0  0  0  0  0  0  0
   -2.0892    3.3060    2.5761 C   0  0  0  0  0  0  0  0  0  0  0  0
   -2.3687    4.3564    2.5354 H   0  0  0  0  0  0  0  0  0  0  0  0
   -2.7123    2.8144    3.3205 H   0  0  0  0  0  0  0  0  0  0  0  0
   -1.0532    3.2449    2.8990 H   0  0  0  0  0  0  0  0  0  0  0  0
  1  2  1  0  0  0  0
  1  3  1  0  0  0  0
  1  4  1  0  0  0  0
  1  5  1  0  0  0  0
  5  6  1  0  0  0  0
  5  7  1  0  0  0  0
  5  8  1  0  0  0  0
  8  9  1  0  0  0  0
  8 10  1  0  0  0  0
  8 11  1  0  0  0  0
 11 12  1  0  0  0  0
 11 13  1  0  0  0  0
 11 14  1  0  0  0  0
M  END
