 xtb: 6.7.1 (edcfbbe)
          08112611113D

 14 13  0     0  0            999 V2000
   -2.4910    0.3631    0.0007 C   0  0  0  0  0  0  0  0  0  0  0  0
   -3.5779    0.3691   -0.0487 H   0  0  0  0  0  0  0  0  0  0  0  0
   -2.1533   -0.6707    0.0070 H   0  0  0  0  0  0  0  0  0  0  0  0
   -2.1062    0.8447   -0.8959 H   0  0  0  0  0  0  0  0  0  0  0  0
   -2.0092    1.0939    1.2478 C   0  0  0  0  0  0  0  0  0  0  0  0
   -0.9178    1.0636    1.2871 H   0  0  0  0  0  0  0  0  0  0  0  0
   -2.3862    0.5825    2.1366 H   0  0  0  0  0  0  0  0  0  0  0  0
   -2.4721    2.5486    1.2712 C   0  0  0  0  0  0  0  0  0  0  0  0
   -2.1036    3.0574    0.3772 H   0  0  0  0  0  0  0  0  0  0  0  0
   -3.5639    2.5788    1.2421 H   0  0  0  0  0  0  0  0  0  0  0  0
   -1.9782    3.2833    2.5112 C   0  0  0  0  0  0  0  0  0  0  0  0
   -0.8907    3.2878    2.5439 H   0  0  0  0  0  0  0  0  0  0  0  0
   -2.3257    4.3140    2.5109 H   0  0  0  0  0  0  0  0  0  0  0  0
   -2.3445    2.7978    3.4134 H   0  0  0  0  0  0  0  0  0  0  0  0
  1  2  1  0  0  0  0
  1  3  1  0  0  0  0
  1  4  1  0  0  0  0
  1  5  1  0  0  0  0
  5  6  1  0  0  0  0
  5  7  1  0  0  0  0
  5  8  1  0  0  0  0
  8  9  1  0  0  0  0
  8 10  1  0  0  0  0
  8 11  1  0  0  0  0
 11 12  1  0  0  0  0
 11 13  1  0  0  0  0
 11 14  1  0  0  0  0
M  END
