 xtb: 6.7.1 (edcfbbe)
          08172612143D

 14 13  0     0  0            999 V2000
   -2.4683    0.3775   -0.0194 C   0  0  0  0  0  0  0  0  0  0  0  0
   -1.9414   -0.5640   -0.1565 H   0  0  0  0  0  0  0  0  0  0  0  0
   -2.3932    0.9503   -0.9414 H   0  0  0  0  0  0  0  0  0  0  0  0
   -3.5187    0.1597    0.1621 H   0  0  0  0  0  0  0  0  0  0  0  0
   -1.8764    1.1606    1.1460 C   0  0  0  0  0  0  0  0  0  0  0  0
   -0.8173    1.3499    0.9559 H   0  0  0  0  0  0  0  0  0  0  0  0
   -1.9466    0.5624    2.0576 H   0  0  0  0  0  0  0  0  0  0  0  0
   -2.5937    2.4909    1.3622 C   0  0  0  0  0  0  0  0  0  0  0  0
   -2.5120    3.0950    0.4554 H   0  0  0  0  0  0  0  0  0  0  0  0
   -3.6553    2.3021    1.5386 H   0  0  0  0  0  0  0  0  0  0  0  0
   -2.0151    3.2648    2.5403 C   0  0  0  0  0  0  0  0  0  0  0  0
   -2.1069    2.6870    3.4577 H   0  0  0  0  0  0  0  0  0  0  0  0
   -0.9611    3.4786    2.3760 H   0  0  0  0  0  0  0  0  0  0  0  0
   -2.5397    4.2080    2.6751 H   0  0  0  0  0  0  0  0  0  0  0  0
  1  2  1  0  0  0  0
  1  3  1  0  0  0  0
  1  4  1  0  0  0  0
  1  5  1  0  0  0  0
  5  6  1  0  0  0  0
  5  7  1  0  0  0  0
  5  8  1  0  0  0  0
  8  9  1  0  0  0  0
  8 10  1  0  0  0  0
  8 11  1  0  0  0  0
 11 12  1  0  0  0  0
 11 13  1  0  0  0  0
 11 14  1  0  0  0  0
M  END
