 xtb: 6.7.1 (edcfbbe)
          08112611123D

 14 13  0     0  0            999 V2000
   -2.5084    0.3603    0.0080 C   0  0  0  0  0  0  0  0  0  0  0  0
   -2.2530   -0.6958    0.0566 H   0  0  0  0  0  0  0  0  0  0  0  0
   -2.0229    0.7911   -0.8654 H   0  0  0  0  0  0  0  0  0  0  0  0
   -3.5851    0.4477   -0.1228 H   0  0  0  0  0  0  0  0  0  0  0  0
   -2.0640    1.0799    1.2754 C   0  0  0  0  0  0  0  0  0  0  0  0
   -0.9840    0.9672    1.3969 H   0  0  0  0  0  0  0  0  0  0  0  0
   -2.5436    0.6187    2.1421 H   0  0  0  0  0  0  0  0  0  0  0  0
   -2.4129    2.5658    1.2399 C   0  0  0  0  0  0  0  0  0  0  0  0
   -1.9352    3.0265    0.3720 H   0  0  0  0  0  0  0  0  0  0  0  0
   -3.4931    2.6786    1.1208 H   0  0  0  0  0  0  0  0  0  0  0  0
   -1.9655    3.2860    2.5059 C   0  0  0  0  0  0  0  0  0  0  0  0
   -0.8888    3.1972    2.6348 H   0  0  0  0  0  0  0  0  0  0  0  0
   -2.2193    4.3425    2.4567 H   0  0  0  0  0  0  0  0  0  0  0  0
   -2.4502    2.8569    3.3805 H   0  0  0  0  0  0  0  0  0  0  0  0
  1  2  1  0  0  0  0
  1  3  1  0  0  0  0
  1  4  1  0  0  0  0
  1  5  1  0  0  0  0
  5  6  1  0  0  0  0
  5  7  1  0  0  0  0
  5  8  1  0  0  0  0
  8  9  1  0  0  0  0
  8 10  1  0  0  0  0
  8 11  1  0  0  0  0
 11 12  1  0  0  0  0
 11 13  1  0  0  0  0
 11 14  1  0  0  0  0
M  END
