 xtb: 6.7.1 (edcfbbe)
          08112611123D

 14 13  0     0  0            999 V2000
   -0.4697    0.9402    1.2044 C   0  0  0  0  0  0  0  0  0  0  0  0
   -0.2036   -0.1114    1.1228 H   0  0  0  0  0  0  0  0  0  0  0  0
    0.0069    1.3407    2.0952 H   0  0  0  0  0  0  0  0  0  0  0  0
   -0.0729    1.4624    0.3362 H   0  0  0  0  0  0  0  0  0  0  0  0
   -1.9841    1.0986    1.2752 C   0  0  0  0  0  0  0  0  0  0  0  0
   -2.3588    0.6027    2.1737 H   0  0  0  0  0  0  0  0  0  0  0  0
   -2.4314    0.5994    0.4121 H   0  0  0  0  0  0  0  0  0  0  0  0
   -2.4367    2.5592    1.2815 C   0  0  0  0  0  0  0  0  0  0  0  0
   -2.0228    3.0672    0.4073 H   0  0  0  0  0  0  0  0  0  0  0  0
   -3.5257    2.5864    1.1938 H   0  0  0  0  0  0  0  0  0  0  0  0
   -2.0262    3.3089    2.5435 C   0  0  0  0  0  0  0  0  0  0  0  0
   -2.3943    2.7938    3.4285 H   0  0  0  0  0  0  0  0  0  0  0  0
   -0.9448    3.3890    2.6160 H   0  0  0  0  0  0  0  0  0  0  0  0
   -2.4395    4.3152    2.5362 H   0  0  0  0  0  0  0  0  0  0  0  0
  1  2  1  0  0  0  0
  1  3  1  0  0  0  0
  1  4  1  0  0  0  0
  1  5  1  0  0  0  0
  5  6  1  0  0  0  0
  5  7  1  0  0  0  0
  5  8  1  0  0  0  0
  8  9  1  0  0  0  0
  8 10  1  0  0  0  0
  8 11  1  0  0  0  0
 11 12  1  0  0  0  0
 11 13  1  0  0  0  0
 11 14  1  0  0  0  0
M  END
