 xtb: 6.7.1 (edcfbbe)
          08172612143D

 14 13  0     0  0            999 V2000
   -2.5084    0.3603    0.0080 C   0  0  0  0  0  0  0  0  0  0  0  0
   -2.2529   -0.6958    0.0566 H   0  0  0  0  0  0  0  0  0  0  0  0
   -2.0228    0.7911   -0.8654 H   0  0  0  0  0  0  0  0  0  0  0  0
   -3.5851    0.4477   -0.1229 H   0  0  0  0  0  0  0  0  0  0  0  0
   -2.0640    1.0799    1.2755 C   0  0  0  0  0  0  0  0  0  0  0  0
   -0.9840    0.9671    1.3970 H   0  0  0  0  0  0  0  0  0  0  0  0
   -2.5437    0.6187    2.1421 H   0  0  0  0  0  0  0  0  0  0  0  0
   -2.4130    2.5658    1.2399 C   0  0  0  0  0  0  0  0  0  0  0  0
   -1.9352    3.0265    0.3719 H   0  0  0  0  0  0  0  0  0  0  0  0
   -3.4932    2.6786    1.1208 H   0  0  0  0  0  0  0  0  0  0  0  0
   -1.9655    3.2860    2.5059 C   0  0  0  0  0  0  0  0  0  0  0  0
   -0.8887    3.1973    2.6347 H   0  0  0  0  0  0  0  0  0  0  0  0
   -2.2193    4.3425    2.4567 H   0  0  0  0  0  0  0  0  0  0  0  0
   -2.4501    2.8569    3.3805 H   0  0  0  0  0  0  0  0  0  0  0  0
  1  2  1  0  0  0  0
  1  3  1  0  0  0  0
  1  4  1  0  0  0  0
  1  5  1  0  0  0  0
  5  6  1  0  0  0  0
  5  7  1  0  0  0  0
  5  8  1  0  0  0  0
  8  9  1  0  0  0  0
  8 10  1  0  0  0  0
  8 11  1  0  0  0  0
 11 12  1  0  0  0  0
 11 13  1  0  0  0  0
 11 14  1  0  0  0  0
M  END
