 xtb: 6.7.1 (edcfbbe)
          08172612143D

 14 13  0     0  0            999 V2000
   -0.9859    1.0061    0.2178 C   0  0  0  0  0  0  0  0  0  0  0  0
   -0.1361    1.4602    0.7204 H   0  0  0  0  0  0  0  0  0  0  0  0
   -1.1702    1.5490   -0.7070 H   0  0  0  0  0  0  0  0  0  0  0  0
   -0.7215   -0.0187   -0.0338 H   0  0  0  0  0  0  0  0  0  0  0  0
   -2.2250    1.0302    1.1052 C   0  0  0  0  0  0  0  0  0  0  0  0
   -2.0112    0.5084    2.0410 H   0  0  0  0  0  0  0  0  0  0  0  0
   -3.0290    0.4879    0.6015 H   0  0  0  0  0  0  0  0  0  0  0  0
   -2.7125    2.4452    1.4189 C   0  0  0  0  0  0  0  0  0  0  0  0
   -2.8577    2.9904    0.4833 H   0  0  0  0  0  0  0  0  0  0  0  0
   -3.6838    2.3774    1.9153 H   0  0  0  0  0  0  0  0  0  0  0  0
   -1.7566    3.2235    2.3154 C   0  0  0  0  0  0  0  0  0  0  0  0
   -2.1792    4.1942    2.5652 H   0  0  0  0  0  0  0  0  0  0  0  0
   -1.5761    2.6803    3.2407 H   0  0  0  0  0  0  0  0  0  0  0  0
   -0.8030    3.3878    1.8207 H   0  0  0  0  0  0  0  0  0  0  0  0
  1  2  1  0  0  0  0
  1  3  1  0  0  0  0
  1  4  1  0  0  0  0
  1  5  1  0  0  0  0
  5  6  1  0  0  0  0
  5  7  1  0  0  0  0
  5  8  1  0  0  0  0
  8  9  1  0  0  0  0
  8 10  1  0  0  0  0
  8 11  1  0  0  0  0
 11 12  1  0  0  0  0
 11 13  1  0  0  0  0
 11 14  1  0  0  0  0
M  END
