 xtb: 6.7.1 (edcfbbe)
          08112611113D

 14 13  0     0  0            999 V2000
   -2.8108    0.2432    0.2666 C   0  0  0  0  0  0  0  0  0  0  0  0
   -3.8930    0.3554    0.2750 H   0  0  0  0  0  0  0  0  0  0  0  0
   -2.5748   -0.8142    0.3625 H   0  0  0  0  0  0  0  0  0  0  0  0
   -2.4392    0.5921   -0.6945 H   0  0  0  0  0  0  0  0  0  0  0  0
   -2.1827    1.0399    1.4035 C   0  0  0  0  0  0  0  0  0  0  0  0
   -1.0999    0.8944    1.3941 H   0  0  0  0  0  0  0  0  0  0  0  0
   -2.5579    0.6656    2.3590 H   0  0  0  0  0  0  0  0  0  0  0  0
   -2.4899    2.5314    1.2929 C   0  0  0  0  0  0  0  0  0  0  0  0
   -2.1035    2.9083    0.3430 H   0  0  0  0  0  0  0  0  0  0  0  0
   -3.5728    2.6760    1.2896 H   0  0  0  0  0  0  0  0  0  0  0  0
   -1.8772    3.3255    2.4399 C   0  0  0  0  0  0  0  0  0  0  0  0
   -2.1055    4.3840    2.3392 H   0  0  0  0  0  0  0  0  0  0  0  0
   -2.2681    2.9795    3.3946 H   0  0  0  0  0  0  0  0  0  0  0  0
   -0.7957    3.2070    2.4513 H   0  0  0  0  0  0  0  0  0  0  0  0
  1  2  1  0  0  0  0
  1  3  1  0  0  0  0
  1  4  1  0  0  0  0
  1  5  1  0  0  0  0
  5  6  1  0  0  0  0
  5  7  1  0  0  0  0
  5  8  1  0  0  0  0
  8  9  1  0  0  0  0
  8 10  1  0  0  0  0
  8 11  1  0  0  0  0
 11 12  1  0  0  0  0
 11 13  1  0  0  0  0
 11 14  1  0  0  0  0
M  END
