 xtb: 6.7.1 (edcfbbe)
          08172612143D

 14 13  0     0  0            999 V2000
   -2.4926    0.3646   -0.0002 C   0  0  0  0  0  0  0  0  0  0  0  0
   -2.1342   -0.6623   -0.0073 H   0  0  0  0  0  0  0  0  0  0  0  0
   -2.1401    0.8573   -0.9040 H   0  0  0  0  0  0  0  0  0  0  0  0
   -3.5803    0.3487   -0.0226 H   0  0  0  0  0  0  0  0  0  0  0  0
   -1.9945    1.0998    1.2379 C   0  0  0  0  0  0  0  0  0  0  0  0
   -0.9021    1.0878    1.2522 H   0  0  0  0  0  0  0  0  0  0  0  0
   -2.3421    0.5792    2.1334 H   0  0  0  0  0  0  0  0  0  0  0  0
   -2.4815    2.5464    1.2769 C   0  0  0  0  0  0  0  0  0  0  0  0
   -2.1339    3.0669    0.3814 H   0  0  0  0  0  0  0  0  0  0  0  0
   -3.5739    2.5583    1.2627 H   0  0  0  0  0  0  0  0  0  0  0  0
   -1.9834    3.2816    2.5150 C   0  0  0  0  0  0  0  0  0  0  0  0
   -0.8957    3.2974    2.5374 H   0  0  0  0  0  0  0  0  0  0  0  0
   -2.3417    4.3084    2.5221 H   0  0  0  0  0  0  0  0  0  0  0  0
   -2.3359    2.7888    3.4188 H   0  0  0  0  0  0  0  0  0  0  0  0
  1  2  1  0  0  0  0
  1  3  1  0  0  0  0
  1  4  1  0  0  0  0
  1  5  1  0  0  0  0
  5  6  1  0  0  0  0
  5  7  1  0  0  0  0
  5  8  1  0  0  0  0
  8  9  1  0  0  0  0
  8 10  1  0  0  0  0
  8 11  1  0  0  0  0
 11 12  1  0  0  0  0
 11 13  1  0  0  0  0
 11 14  1  0  0  0  0
M  END
