 xtb: 6.7.1 (edcfbbe)
          08112611123D

 14 13  0     0  0            999 V2000
   -1.7554    0.5728   -0.1781 C   0  0  0  0  0  0  0  0  0  0  0  0
   -1.1025    1.1276   -0.8493 H   0  0  0  0  0  0  0  0  0  0  0  0
   -2.7633    0.5940   -0.5882 H   0  0  0  0  0  0  0  0  0  0  0  0
   -1.4184   -0.4611   -0.1487 H   0  0  0  0  0  0  0  0  0  0  0  0
   -1.7330    1.1861    1.2167 C   0  0  0  0  0  0  0  0  0  0  0  0
   -0.7172    1.1422    1.6161 H   0  0  0  0  0  0  0  0  0  0  0  0
   -2.3744    0.6018    1.8806 H   0  0  0  0  0  0  0  0  0  0  0  0
   -2.2075    2.6374    1.2093 C   0  0  0  0  0  0  0  0  0  0  0  0
   -1.5671    3.2213    0.5437 H   0  0  0  0  0  0  0  0  0  0  0  0
   -3.2243    2.6814    0.8114 H   0  0  0  0  0  0  0  0  0  0  0  0
   -2.1825    3.2517    2.6036 C   0  0  0  0  0  0  0  0  0  0  0  0
   -1.1742    3.2299    3.0119 H   0  0  0  0  0  0  0  0  0  0  0  0
   -2.5185    4.2858    2.5744 H   0  0  0  0  0  0  0  0  0  0  0  0
   -2.8346    2.6980    3.2760 H   0  0  0  0  0  0  0  0  0  0  0  0
  1  2  1  0  0  0  0
  1  3  1  0  0  0  0
  1  4  1  0  0  0  0
  1  5  1  0  0  0  0
  5  6  1  0  0  0  0
  5  7  1  0  0  0  0
  5  8  1  0  0  0  0
  8  9  1  0  0  0  0
  8 10  1  0  0  0  0
  8 11  1  0  0  0  0
 11 12  1  0  0  0  0
 11 13  1  0  0  0  0
 11 14  1  0  0  0  0
M  END
