 xtb: 6.7.1 (edcfbbe)
          08112611113D

 14 13  0     0  0            999 V2000
   -2.9463    0.2011    1.8959 C   0  0  0  0  0  0  0  0  0  0  0  0
   -2.9280    0.4416    2.9556 H   0  0  0  0  0  0  0  0  0  0  0  0
   -2.6778   -0.8470    1.7828 H   0  0  0  0  0  0  0  0  0  0  0  0
   -3.9618    0.3360    1.5291 H   0  0  0  0  0  0  0  0  0  0  0  0
   -1.9771    1.0824    1.1167 C   0  0  0  0  0  0  0  0  0  0  0  0
   -1.9620    0.7533    0.0747 H   0  0  0  0  0  0  0  0  0  0  0  0
   -0.9687    0.9551    1.5174 H   0  0  0  0  0  0  0  0  0  0  0  0
   -2.3490    2.5651    1.1547 C   0  0  0  0  0  0  0  0  0  0  0  0
   -1.7055    3.1037    0.4546 H   0  0  0  0  0  0  0  0  0  0  0  0
   -3.3802    2.6854    0.8142 H   0  0  0  0  0  0  0  0  0  0  0  0
   -2.1972    3.1864    2.5383 C   0  0  0  0  0  0  0  0  0  0  0  0
   -1.1830    3.0485    2.9075 H   0  0  0  0  0  0  0  0  0  0  0  0
   -2.4049    4.2535    2.4980 H   0  0  0  0  0  0  0  0  0  0  0  0
   -2.8864    2.7351    3.2471 H   0  0  0  0  0  0  0  0  0  0  0  0
  1  2  1  0  0  0  0
  1  3  1  0  0  0  0
  1  4  1  0  0  0  0
  1  5  1  0  0  0  0
  5  6  1  0  0  0  0
  5  7  1  0  0  0  0
  5  8  1  0  0  0  0
  8  9  1  0  0  0  0
  8 10  1  0  0  0  0
  8 11  1  0  0  0  0
 11 12  1  0  0  0  0
 11 13  1  0  0  0  0
 11 14  1  0  0  0  0
M  END
