@<TRIPOS>MOLECULE
MOL
14 13 0 0 0
SMALL
USER_CHARGES

@<TRIPOS>ATOM
    1 C1      -0.5868     1.4370    -0.5670 c3   1 MOL  -0.646624
    2 H2      -1.3809     2.1815    -0.4810 h3   1 MOL   0.210695
    3 H3      -0.7411     0.8966    -1.5029 h3   1 MOL   0.210038
    4 H4       0.3662     1.9689    -0.6400 h3   1 MOL   0.212760
    5 C5      -0.5868     0.4919     0.6353 c3   1 MOL  -0.406786
    6 H6      -1.5263    -0.0710     0.6577 h3   1 MOL   0.211064
    7 H7      -0.5545     1.0823     1.5558 h3   1 MOL   0.208865
    8 C8       0.5868    -0.4919     0.6353 c3   1 MOL  -0.406821
    9 H9       1.5263     0.0710     0.6577 h3   1 MOL   0.211063
   10 H10      0.5545    -1.0823     1.5558 h3   1 MOL   0.208870
   11 C11      0.5868    -1.4370    -0.5670 c3   1 MOL  -0.646584
   12 H12      1.3809    -2.1815    -0.4810 h3   1 MOL   0.210691
   13 H13     -0.3662    -1.9689    -0.6400 h3   1 MOL   0.212749
   14 H14      0.7411    -0.8966    -1.5029 h3   1 MOL   0.210021

@<TRIPOS>BOND
    1     1     2 1
    2     1     3 1
    3     1     4 1
    4     1     5 1
    5     5     6 1
    6     5     7 1
    7     5     8 1
    8     8     9 1
    9     8    10 1
   10     8    11 1
   11    11    12 1
   12    11    13 1
   13    11    14 1
