@<TRIPOS>MOLECULE
MOL
14 13 0 0 0
SMALL
USER_CHARGES

@<TRIPOS>ATOM
    1 C1      -0.7060     1.8201     0.0000 c3   1 MOL  -0.768379
    2 H2      -1.7214     2.2216     0.0000 h3   1 MOL   0.209939
    3 H3      -0.1907     2.2075    -0.8828 h3   1 MOL   0.210941
    4 H4      -0.1907     2.2075     0.8828 h3   1 MOL   0.210941
    5 C5      -0.7060     0.2921     0.0000 c3   1 MOL  -0.277892
    6 H6      -1.2471    -0.0775    -0.8776 h3   1 MOL   0.207224
    7 H7      -1.2471    -0.0775     0.8776 h3   1 MOL   0.207224
    8 C8       0.7060    -0.2921     0.0000 c3   1 MOL  -0.277892
    9 H9       1.2471     0.0775    -0.8776 h3   1 MOL   0.207224
   10 H10      1.2471     0.0775     0.8776 h3   1 MOL   0.207224
   11 C11      0.7060    -1.8201     0.0000 c3   1 MOL  -0.768379
   12 H12      0.1907    -2.2075    -0.8828 h3   1 MOL   0.210941
   13 H13      1.7214    -2.2216     0.0000 h3   1 MOL   0.209939
   14 H14      0.1907    -2.2075     0.8828 h3   1 MOL   0.210941

@<TRIPOS>BOND
    1     1     2 1
    2     1     3 1
    3     1     4 1
    4     1     5 1
    5     5     6 1
    6     5     7 1
    7     5     8 1
    8     8     9 1
    9     8    10 1
   10     8    11 1
   11    11    12 1
   12    11    13 1
   13    11    14 1
