 xtb: 6.7.1 (edcfbbe)
          08112611113D

 14 13  0     0  0            999 V2000
   -2.5058    0.3609    0.0075 C   0  0  0  0  0  0  0  0  0  0  0  0
   -2.2141   -0.6865    0.0387 H   0  0  0  0  0  0  0  0  0  0  0  0
   -2.0666    0.8132   -0.8792 H   0  0  0  0  0  0  0  0  0  0  0  0
   -3.5887    0.4130   -0.0838 H   0  0  0  0  0  0  0  0  0  0  0  0
   -2.0404    1.0867    1.2638 C   0  0  0  0  0  0  0  0  0  0  0  0
   -0.9542    1.0047    1.3492 H   0  0  0  0  0  0  0  0  0  0  0  0
   -2.4780    0.6076    2.1428 H   0  0  0  0  0  0  0  0  0  0  0  0
   -2.4330    2.5621    1.2485 C   0  0  0  0  0  0  0  0  0  0  0  0
   -1.9908    3.0426    0.3726 H   0  0  0  0  0  0  0  0  0  0  0  0
   -3.5187    2.6441    1.1575 H   0  0  0  0  0  0  0  0  0  0  0  0
   -1.9747    3.2861    2.5085 C   0  0  0  0  0  0  0  0  0  0  0  0
   -2.4210    2.8341    3.3918 H   0  0  0  0  0  0  0  0  0  0  0  0
   -0.8922    3.2317    2.6073 H   0  0  0  0  0  0  0  0  0  0  0  0
   -2.2639    4.3338    2.4758 H   0  0  0  0  0  0  0  0  0  0  0  0
  1  2  1  0  0  0  0
  1  3  1  0  0  0  0
  1  4  1  0  0  0  0
  1  5  1  0  0  0  0
  5  6  1  0  0  0  0
  5  7  1  0  0  0  0
  5  8  1  0  0  0  0
  8  9  1  0  0  0  0
  8 10  1  0  0  0  0
  8 11  1  0  0  0  0
 11 12  1  0  0  0  0
 11 13  1  0  0  0  0
 11 14  1  0  0  0  0
M  END
