 xtb: 6.7.1 (edcfbbe)
          08172612143D

 14 13  0     0  0            999 V2000
   -2.5060    0.3608    0.0076 C   0  0  0  0  0  0  0  0  0  0  0  0
   -2.2147   -0.6866    0.0388 H   0  0  0  0  0  0  0  0  0  0  0  0
   -2.0667    0.8130   -0.8791 H   0  0  0  0  0  0  0  0  0  0  0  0
   -3.5889    0.4134   -0.0835 H   0  0  0  0  0  0  0  0  0  0  0  0
   -2.0401    1.0867    1.2637 C   0  0  0  0  0  0  0  0  0  0  0  0
   -0.9539    1.0048    1.3487 H   0  0  0  0  0  0  0  0  0  0  0  0
   -2.4772    0.6077    2.1429 H   0  0  0  0  0  0  0  0  0  0  0  0
   -2.4329    2.5621    1.2484 C   0  0  0  0  0  0  0  0  0  0  0  0
   -1.9905    3.0426    0.3726 H   0  0  0  0  0  0  0  0  0  0  0  0
   -3.5185    2.6440    1.1571 H   0  0  0  0  0  0  0  0  0  0  0  0
   -1.9749    3.2861    2.5085 C   0  0  0  0  0  0  0  0  0  0  0  0
   -2.4214    2.8339    3.3917 H   0  0  0  0  0  0  0  0  0  0  0  0
   -0.8925    3.2316    2.6076 H   0  0  0  0  0  0  0  0  0  0  0  0
   -2.2641    4.3338    2.4760 H   0  0  0  0  0  0  0  0  0  0  0  0
  1  2  1  0  0  0  0
  1  3  1  0  0  0  0
  1  4  1  0  0  0  0
  1  5  1  0  0  0  0
  5  6  1  0  0  0  0
  5  7  1  0  0  0  0
  5  8  1  0  0  0  0
  8  9  1  0  0  0  0
  8 10  1  0  0  0  0
  8 11  1  0  0  0  0
 11 12  1  0  0  0  0
 11 13  1  0  0  0  0
 11 14  1  0  0  0  0
M  END
