 xtb: 6.7.1 (edcfbbe)
          08172612143D

 14 13  0     0  0            999 V2000
   -2.0164    0.3037    2.5707 C   0  0  0  0  0  0  0  0  0  0  0  0
   -1.5746   -0.6798    2.4261 H   0  0  0  0  0  0  0  0  0  0  0  0
   -3.0686    0.1739    2.8159 H   0  0  0  0  0  0  0  0  0  0  0  0
   -1.5215    0.7751    3.4155 H   0  0  0  0  0  0  0  0  0  0  0  0
   -1.8632    1.1436    1.3078 C   0  0  0  0  0  0  0  0  0  0  0  0
   -2.2978    0.5972    0.4667 H   0  0  0  0  0  0  0  0  0  0  0  0
   -0.8013    1.2874    1.0940 H   0  0  0  0  0  0  0  0  0  0  0  0
   -2.5447    2.5087    1.4070 C   0  0  0  0  0  0  0  0  0  0  0  0
   -2.5198    2.9831    0.4227 H   0  0  0  0  0  0  0  0  0  0  0  0
   -3.5937    2.3672    1.6784 H   0  0  0  0  0  0  0  0  0  0  0  0
   -1.8814    3.4373    2.4177 C   0  0  0  0  0  0  0  0  0  0  0  0
   -1.9786    3.0482    3.4281 H   0  0  0  0  0  0  0  0  0  0  0  0
   -0.8226    3.5511    2.1920 H   0  0  0  0  0  0  0  0  0  0  0  0
   -2.3455    4.4211    2.3882 H   0  0  0  0  0  0  0  0  0  0  0  0
  1  2  1  0  0  0  0
  1  3  1  0  0  0  0
  1  4  1  0  0  0  0
  1  5  1  0  0  0  0
  5  6  1  0  0  0  0
  5  7  1  0  0  0  0
  5  8  1  0  0  0  0
  8  9  1  0  0  0  0
  8 10  1  0  0  0  0
  8 11  1  0  0  0  0
 11 12  1  0  0  0  0
 11 13  1  0  0  0  0
 11 14  1  0  0  0  0
M  END
