 xtb: 6.7.1 (edcfbbe)
          08172612143D

 14 13  0     0  0            999 V2000
   -3.0632    0.0714    0.8442 C   0  0  0  0  0  0  0  0  0  0  0  0
   -2.6473   -0.9335    0.8511 H   0  0  0  0  0  0  0  0  0  0  0  0
   -3.1915    0.3830   -0.1908 H   0  0  0  0  0  0  0  0  0  0  0  0
   -4.0442    0.0406    1.3149 H   0  0  0  0  0  0  0  0  0  0  0  0
   -2.1463    1.0373    1.5839 C   0  0  0  0  0  0  0  0  0  0  0  0
   -1.1624    1.0398    1.1085 H   0  0  0  0  0  0  0  0  0  0  0  0
   -2.0144    0.6960    2.6136 H   0  0  0  0  0  0  0  0  0  0  0  0
   -2.7026    2.4589    1.5924 C   0  0  0  0  0  0  0  0  0  0  0  0
   -2.8379    2.7975    0.5623 H   0  0  0  0  0  0  0  0  0  0  0  0
   -3.6848    2.4585    2.0712 H   0  0  0  0  0  0  0  0  0  0  0  0
   -1.7823    3.4262    2.3263 C   0  0  0  0  0  0  0  0  0  0  0  0
   -0.8032    3.4566    1.8518 H   0  0  0  0  0  0  0  0  0  0  0  0
   -2.1983    4.4310    2.3196 H   0  0  0  0  0  0  0  0  0  0  0  0
   -1.6501    3.1159    3.3612 H   0  0  0  0  0  0  0  0  0  0  0  0
  1  2  1  0  0  0  0
  1  3  1  0  0  0  0
  1  4  1  0  0  0  0
  1  5  1  0  0  0  0
  5  6  1  0  0  0  0
  5  7  1  0  0  0  0
  5  8  1  0  0  0  0
  8  9  1  0  0  0  0
  8 10  1  0  0  0  0
  8 11  1  0  0  0  0
 11 12  1  0  0  0  0
 11 13  1  0  0  0  0
 11 14  1  0  0  0  0
M  END
