 xtb: 6.7.1 (edcfbbe)
          08112611113D

 14 13  0     0  0            999 V2000
   -0.9866    0.9036    0.3303 C   0  0  0  0  0  0  0  0  0  0  0  0
   -0.1653    1.1997    0.9775 H   0  0  0  0  0  0  0  0  0  0  0  0
   -0.9385    1.4957   -0.5814 H   0  0  0  0  0  0  0  0  0  0  0  0
   -0.8486   -0.1429    0.0670 H   0  0  0  0  0  0  0  0  0  0  0  0
   -2.3294    1.1017    1.0239 C   0  0  0  0  0  0  0  0  0  0  0  0
   -2.3422    0.5342    1.9575 H   0  0  0  0  0  0  0  0  0  0  0  0
   -3.1195    0.7013    0.3835 H   0  0  0  0  0  0  0  0  0  0  0  0
   -2.6417    2.5684    1.3230 C   0  0  0  0  0  0  0  0  0  0  0  0
   -2.5854    3.1437    0.3959 H   0  0  0  0  0  0  0  0  0  0  0  0
   -3.6680    2.6373    1.6921 H   0  0  0  0  0  0  0  0  0  0  0  0
   -1.7050    3.1825    2.3568 C   0  0  0  0  0  0  0  0  0  0  0  0
   -0.6846    3.2219    1.9848 H   0  0  0  0  0  0  0  0  0  0  0  0
   -2.0175    4.1972    2.5935 H   0  0  0  0  0  0  0  0  0  0  0  0
   -1.7156    2.5978    3.2743 H   0  0  0  0  0  0  0  0  0  0  0  0
  1  2  1  0  0  0  0
  1  3  1  0  0  0  0
  1  4  1  0  0  0  0
  1  5  1  0  0  0  0
  5  6  1  0  0  0  0
  5  7  1  0  0  0  0
  5  8  1  0  0  0  0
  8  9  1  0  0  0  0
  8 10  1  0  0  0  0
  8 11  1  0  0  0  0
 11 12  1  0  0  0  0
 11 13  1  0  0  0  0
 11 14  1  0  0  0  0
M  END
