 xtb: 6.7.1 (edcfbbe)
          08112611113D

 14 13  0     0  0            999 V2000
   -0.5077    0.8541    1.5818 C   0  0  0  0  0  0  0  0  0  0  0  0
   -0.2469    1.1521    2.5939 H   0  0  0  0  0  0  0  0  0  0  0  0
    0.1287    1.3981    0.8867 H   0  0  0  0  0  0  0  0  0  0  0  0
   -0.2983   -0.2085    1.4782 H   0  0  0  0  0  0  0  0  0  0  0  0
   -1.9772    1.1345    1.2895 C   0  0  0  0  0  0  0  0  0  0  0  0
   -2.5983    0.6150    2.0230 H   0  0  0  0  0  0  0  0  0  0  0  0
   -2.2238    0.7315    0.3041 H   0  0  0  0  0  0  0  0  0  0  0  0
   -2.3201    2.6246    1.3062 C   0  0  0  0  0  0  0  0  0  0  0  0
   -1.6634    3.1518    0.6101 H   0  0  0  0  0  0  0  0  0  0  0  0
   -3.3459    2.7497    0.9508 H   0  0  0  0  0  0  0  0  0  0  0  0
   -2.1991    3.2526    2.6898 C   0  0  0  0  0  0  0  0  0  0  0  0
   -1.1696    3.2369    3.0374 H   0  0  0  0  0  0  0  0  0  0  0  0
   -2.5315    4.2881    2.6647 H   0  0  0  0  0  0  0  0  0  0  0  0
   -2.8139    2.7130    3.4072 H   0  0  0  0  0  0  0  0  0  0  0  0
  1  2  1  0  0  0  0
  1  3  1  0  0  0  0
  1  4  1  0  0  0  0
  1  5  1  0  0  0  0
  5  6  1  0  0  0  0
  5  7  1  0  0  0  0
  5  8  1  0  0  0  0
  8  9  1  0  0  0  0
  8 10  1  0  0  0  0
  8 11  1  0  0  0  0
 11 12  1  0  0  0  0
 11 13  1  0  0  0  0
 11 14  1  0  0  0  0
M  END
